* NGSPICE file created from ringosc3.ext - technology: sky130A

.subckt ringosc3 vdd out gnd
.ends

